LTspice 24.0.12 for Windows
Circuit: * C:\Users\maurovlachus\OneDrive - Technical University of Cluj-Napoca\utcn\master\caa\proiect\p1_opamps\parameterExtraction\ekvParameterExtraction.asc
Start Time: Thu Dec 26 14:23:13 2024
solver = Normal
Maximum thread count: 22
tnom = 27
temp = 27
method = modified trap
Total elapsed time: 0.060 seconds.

