Circuit: * D:\Facultate\MASTER_AN_1\BLOCURI ANALOGICE AVANSATE\Proiect\biomedicalAnalogFrontend\p2_filter\Circuit_filtru\Draft1.asc

WARNING: Less than two connections to node OUT2.  This node is used by E2.

Date: Sun Jan 05 21:01:25 2025
Total elapsed time: 0.061 seconds.

tnom = 27
temp = 27
method = trap
totiter = 0
traniter = 0
tranpoints = 0
accept = 0
rejected = 0
matrix size = 6
fillins = 0
solver = Normal

