Circuit: * D:\Facultate\MASTER_AN_1\BLOCURI ANALOGICE AVANSATE\Proiect\biomedicalAnalogFrontend\p2_filter\Circuit_filtru\test_biquad_real_cc.asc

Direct Newton iteration failed to find .op point.  (Use ".option noopiter" to skip.)
Starting Gmin stepping
Gmin = 10
Gmin = 1.07374
Gmin = 0.115292
Gmin = 0.0123794
Gmin = 0.00132923
Gmin = 0.000142725
Gmin = 1.5325e-005
Gmin = 1.6455e-006
Gmin = 1.76685e-007
Gmin = 1.89714e-008
Gmin = 2.03704e-009
Gmin = 2.18725e-010
Gmin = 2.34854e-011
Gmin = 2.52173e-012
Gmin = 2.70769e-013
Gmin = 0
Gmin stepping succeeded in finding the operating point.


Date: Mon Jan 06 17:39:03 2025
Total elapsed time: 425.676 seconds.

tnom = 27
temp = 27
method = modified trap
totiter = 7296747
traniter = 7296301
tranpoints = 2721750
accept = 2070924
rejected = 650826
matrix size = 108
fillins = 92
solver = Normal
Thread vector: 86.8/23.5[12] 32.0/6.6[12] 10.3/4.2[12] 0.9/32.3[1]  2592/500
Matrix Compiler1: 21.18 KB object code size  6.7/3.3/[1.3]
Matrix Compiler2: 21.08 KB object code size  4.8/3.6/[1.1]

