Circuit: * D:\Facultate\MASTER_AN_1\BLOCURI ANALOGICE AVANSATE\Proiect\biomedicalAnalogFrontend\p2_filter\Circuit_filtru\test_biquad_ideal.asc

WARNING: Less than two connections to node OUT2.  This node is used by E2.

Date: Mon Jan 06 15:27:01 2025
Total elapsed time: 0.051 seconds.

tnom = 27
temp = 27
method = trap
totiter = 0
traniter = 0
tranpoints = 0
accept = 0
rejected = 0
matrix size = 50
fillins = 85
solver = Normal

