Circuit: * D:\Facultate\MASTER_AN_1\BLOCURI ANALOGICE AVANSATE\Proiect\biomedicalAnalogFrontend\p2_filter\Circuit_filtru\test_biquad_real.asc

WARNING: Less than two connections to node OUT2.  This node is used by E2.
Direct Newton iteration failed to find .op point.  (Use ".option noopiter" to skip.)
Starting Gmin stepping
Gmin = 10
Gmin = 1.07374
Gmin = 0.115292
Gmin = 0.0123794
Gmin = 0.00132923
Gmin = 0.000142725
Gmin = 1.5325e-005
Gmin = 1.6455e-006
Gmin = 1.76685e-007
Gmin = 1.89714e-008
Gmin = 2.03704e-009
Gmin = 2.18725e-010
Gmin = 2.34854e-011
Gmin = 2.52173e-012
Gmin = 2.70769e-013
Gmin = 0
Gmin stepping succeeded in finding the operating point.


Date: Mon Jan 06 15:29:14 2025
Total elapsed time: 0.138 seconds.

tnom = 27
temp = 27
method = trap
totiter = 411
traniter = 0
tranpoints = 0
accept = 0
rejected = 0
matrix size = 86
fillins = 114
solver = Normal
Matrix Compiler1:    1063 opcodes
Matrix Compiler2: 14.21 KB object code size  1.2/1.5/[0.6]

