LTspice 24.0.12 for Windows
Circuit: * C:\Users\maurovlachus\OneDrive - Technical University of Cluj-Napoca\utcn\master\caa\proiect\p2_filter\Circuit_filtru\test_biquad_ideal.asc
Start Time: Mon Jan  6 15:18:19 2025
solver = Normal
Maximum thread count: 22
tnom = 27
temp = 27
method = modified trap
WARNING: Less than two connections to node out2.  This node is used by e2.
.OP point found by inspection.
Total elapsed time: 0.100 seconds.

