Circuit: * D:\Facultate\MASTER_AN_1\BLOCURI ANALOGICE AVANSATE\Proiect\biomedicalAnalogFrontend\p2_filter\Circuit_filtru\test_ERG_signal.asc

WARNING: Less than two connections to node ERG.  This node is used by V5.
Direct Newton iteration for .op point succeeded.

Date: Sun Jan 05 19:06:03 2025
Total elapsed time: 2.727 seconds.

tnom = 27
temp = 27
method = modified trap
totiter = 2000037
traniter = 2000034
tranpoints = 1000018
accept = 1000018
rejected = 0
matrix size = 2
fillins = 0
solver = Normal
Matrix Compiler1: 18 bytes object code size  0.0/0.0/[0.0]
Matrix Compiler2: 82 bytes object code size  0.0/0.0/[0.0]

