LTspice 24.0.12 for Windows
Circuit: * c:\Users\maurovlachus\OneDrive - Technical University of Cluj-Napoca\utcn\master\caa\proiect\p1_opamps\ekvParameterExtraction\4param_extraction\id_vgs_graph\ltspice\ekvParameterExtractionEdited.asc
Start Time: Sat Dec 28 14:31:29 2024
solver = Normal
Maximum thread count: 22
tnom = 27
temp = 27
method = modified trap
Total elapsed time: 0.022 seconds.

