LTspice 24.0.12 for Windows
Circuit: * c:\Users\maurovlachus\OneDrive - Technical University of Cluj-Napoca\utcn\master\caa\proiect\p1_opamps\parameterExtraction\ekvParameterExtractionEdited.asc
Start Time: Wed Dec 25 21:28:43 2024
solver = Normal
Maximum thread count: 22
tnom = 27
temp = 27
method = modified trap
Total elapsed time: 0.029 seconds.

