LTspice 24.0.12 for Windows
Circuit: * C:\Users\maurovlachus\OneDrive - Technical University of Cluj-Napoca\utcn\master\caa\proiect\p1_opamps\AO_CP_NMOS\test_ao_cp_n_AC.asc
Start Time: Sun Jan  5 16:30:48 2025
solver = Normal
Maximum thread count: 22
tnom = 27
temp = 27
method = modified trap
Warning: Pd = 2.4e-06 is less than W.
Warning: Ps = 2.4e-06 is less than W.
Warning: Pd = 2.4e-06 is less than W.
Warning: Ps = 2.4e-06 is less than W.
Warning: Pd = 2.4e-06 is less than W.
Warning: Ps = 2.4e-06 is less than W.
Warning: Pd = 2.4e-06 is less than W.
Warning: Ps = 2.4e-06 is less than W.
Warning: Pd = 2.4e-06 is less than W.
Warning: Ps = 2.4e-06 is less than W.
Warning: Pd = 2.4e-06 is less than W.
Warning: Ps = 2.4e-06 is less than W.
Warning: Pd = 2.4e-06 is less than W.
Warning: Ps = 2.4e-06 is less than W.
Direct Newton iteration failed to find .op point.  (Use ".option noopiter" to skip.)
Starting Gmin stepping
Gmin = 10
Gmin = 1.07374
Gmin = 0.115292
Gmin = 0.0123794
Gmin = 0.00132923
Gmin = 0.000142725
Gmin = 1.5325e-05
Gmin = 1.6455e-06
Gmin = 1.76685e-07
Gmin = 1.89714e-08
Gmin = 2.03704e-09
Gmin = 2.18725e-10
Gmin = 2.34854e-11
Gmin = 2.52173e-12
Gmin = 2.70769e-13
Gmin = 0
Gmin stepping succeeded in finding the operating point.

Total elapsed time: 0.164 seconds.

